ROMS/TOMS Framework: September 28, 2020
===================

Copyright (c) 2002-2020 The ROMS/TOMS Group
  Licensed under a MIT/X style license
  See License_ROMS.txt

svn: $HeadURL: https://www.myroms.org/svn/src/trunk/ROMS/Version $
svn: $LastChangedBy: arango $
svn: $LastChangedRevision: 1038 $
svn: $LastChangedDate: 2020-09-28 18:54:25 -0700 (Mon, 28 Sep 2020) $

