ROMS/TOMS Framework: February 14, 2018
===================

Copyright (c) 2002-2018 The ROMS/TOMS Group
  Licensed under a MIT/X style license
  See License_ROMS.txt

svn: $HeadURL: https://www.myroms.org/svn/src/trunk/ROMS/Version $
svn: $LastChangedBy: arango $
svn: $LastChangedRevision: 898 $
svn: $LastChangedDate: 2018-02-14 10:00:44 -0800 (Wed, 14 Feb 2018) $